# File generated by Flopy version 3.9.5 on 01/08/2026 at 22:43:09.
BEGIN options
  BUDGET  FILEOUT  downsc_freyberg.cbc
  HEAD  FILEOUT  downsc_freyberg.hds
END options

BEGIN period  1
  SAVE  HEAD  ALL
  SAVE  BUDGET  ALL
  PRINT  BUDGET  ALL
END period  1

