# File generated by Flopy version 3.9.5 on 01/08/2026 at 22:43:08.
BEGIN options
  SAVE_SPECIFIC_DISCHARGE
END options

BEGIN griddata
  icelltype
    OPEN/CLOSE  'downsc_freyberg.npf_icelltype.txt'  FACTOR  1
  k
    OPEN/CLOSE  'downsc_freyberg.npf_k.txt'  FACTOR  1.0
END griddata

