pcf
* control data
             restart          estimation
         2       565         2         0        23
         2         2              single               point         1
   2.000000E+01  -3.000000E+00   3.000000E-01   1.000000E-02        -7
   1.000000E+01   1.000000E+01   1.000000E-03
   1.000000E-01
         0   1.000000E-02         3         3   1.000000E-02         3
         0         0         0
* singular value decomposition
         1
  10000000    1.000000E-06
1
* parameter groups
npfkcn                 relative              1.0000000000E-02      0.0 switch                2.0000000000E+00      parabolic             1.0000000000E-05      5.0000000000E-01      smaller              
stosycn                relative              1.0000000000E-02      0.0 switch                2.0000000000E+00      parabolic             1.0000000000E-05      5.0000000000E-01      smaller              
* parameter data
 pname:npfkcn_inst:0_ptype:cn_pstyle:d  log                   factor                5.0000000000E+00      1.5000000000E+00      1.5000000000E+01      npfkcn                1.0000000000E+00      0.0000000000E+00      1          
pname:stosycn_inst:0_ptype:cn_pstyle:d  log                   factor                5.0000000000E-03      1.0000000000E-03      1.0000000000E+00      stosycn               1.0000000000E+00      0.0000000000E+00      1          
* observation groups
oname:hds_otype:lst_usecol:trgw-0-13-10 
oname:hds_otype:lst_usecol:trgw-0-15-16 
oname:hds_otype:lst_usecol:trgw-0-2-15 
oname:hds_otype:lst_usecol:trgw-0-2-9 
oname:hds_otype:lst_usecol:trgw-0-21-10 
oname:hds_otype:lst_usecol:trgw-0-22-15 
oname:hds_otype:lst_usecol:trgw-0-24-4 
oname:hds_otype:lst_usecol:trgw-0-26-6 
oname:hds_otype:lst_usecol:trgw-0-29-15 
oname:hds_otype:lst_usecol:trgw-0-3-8 
oname:hds_otype:lst_usecol:trgw-0-33-7 
oname:hds_otype:lst_usecol:trgw-0-34-10 
oname:hds_otype:lst_usecol:trgw-0-9-1 
oname:grv_otype:lst_usecol:g000 
oname:grv_otype:lst_usecol:g001 
oname:grv_otype:lst_usecol:g002 
oname:grv_otype:lst_usecol:g003 
oname:grv_otype:lst_usecol:g004 
oname:grv_otype:lst_usecol:g005 
oname:grv_otype:lst_usecol:g006 
oname:grv_otype:lst_usecol:g007 
oname:grv_otype:lst_usecol:g008 
oname:grv_otype:lst_usecol:g009 
* observation data
oname:hds_otype:lst_usecol:trgw-0-13-10_time:3652.5  5.7041099520E+01      0.0000000000E+00      oname:hds_otype:lst_usecol:trgw-0-13-10 
oname:hds_otype:lst_usecol:trgw-0-13-10_time:3683.5  5.6928025494E+01      0.0000000000E+00      oname:hds_otype:lst_usecol:trgw-0-13-10 
oname:hds_otype:lst_usecol:trgw-0-13-10_time:3712.5  5.7000481698E+01      0.0000000000E+00      oname:hds_otype:lst_usecol:trgw-0-13-10 
oname:hds_otype:lst_usecol:trgw-0-13-10_time:3743.5  5.6958431654E+01      0.0000000000E+00      oname:hds_otype:lst_usecol:trgw-0-13-10 
oname:hds_otype:lst_usecol:trgw-0-13-10_time:3773.5  5.6929959907E+01      0.0000000000E+00      oname:hds_otype:lst_usecol:trgw-0-13-10 
oname:hds_otype:lst_usecol:trgw-0-13-10_time:3804.5  5.6970426646E+01      0.0000000000E+00      oname:hds_otype:lst_usecol:trgw-0-13-10 
oname:hds_otype:lst_usecol:trgw-0-13-10_time:3834.5  5.6908372689E+01      0.0000000000E+00      oname:hds_otype:lst_usecol:trgw-0-13-10 
oname:hds_otype:lst_usecol:trgw-0-13-10_time:3865.5  5.6812236285E+01      0.0000000000E+00      oname:hds_otype:lst_usecol:trgw-0-13-10 
oname:hds_otype:lst_usecol:trgw-0-13-10_time:3896.5  5.6681334300E+01      0.0000000000E+00      oname:hds_otype:lst_usecol:trgw-0-13-10 
oname:hds_otype:lst_usecol:trgw-0-13-10_time:3926.5  5.6400427125E+01      0.0000000000E+00      oname:hds_otype:lst_usecol:trgw-0-13-10 
oname:hds_otype:lst_usecol:trgw-0-13-10_time:3957.5  5.6125074917E+01      0.0000000000E+00      oname:hds_otype:lst_usecol:trgw-0-13-10 
oname:hds_otype:lst_usecol:trgw-0-13-10_time:3987.5  5.5992442494E+01      0.0000000000E+00      oname:hds_otype:lst_usecol:trgw-0-13-10 
oname:hds_otype:lst_usecol:trgw-0-13-10_time:4018.5  5.5909360181E+01      0.0000000000E+00      oname:hds_otype:lst_usecol:trgw-0-13-10 
oname:hds_otype:lst_usecol:trgw-0-13-10_time:4049.5  5.5827459383E+01      0.0000000000E+00      oname:hds_otype:lst_usecol:trgw-0-13-10 
oname:hds_otype:lst_usecol:trgw-0-13-10_time:4077.5  5.5985063136E+01      0.0000000000E+00      oname:hds_otype:lst_usecol:trgw-0-13-10 
oname:hds_otype:lst_usecol:trgw-0-13-10_time:4108.5  5.6024048854E+01      0.0000000000E+00      oname:hds_otype:lst_usecol:trgw-0-13-10 
oname:hds_otype:lst_usecol:trgw-0-13-10_time:4138.5  5.6156252989E+01      0.0000000000E+00      oname:hds_otype:lst_usecol:trgw-0-13-10 
oname:hds_otype:lst_usecol:trgw-0-13-10_time:4169.5  5.6211822822E+01      0.0000000000E+00      oname:hds_otype:lst_usecol:trgw-0-13-10 
oname:hds_otype:lst_usecol:trgw-0-13-10_time:4199.5  5.6278041549E+01      0.0000000000E+00      oname:hds_otype:lst_usecol:trgw-0-13-10 
oname:hds_otype:lst_usecol:trgw-0-13-10_time:4230.5  5.6108800634E+01      0.0000000000E+00      oname:hds_otype:lst_usecol:trgw-0-13-10 
oname:hds_otype:lst_usecol:trgw-0-13-10_time:4261.5  5.5985386294E+01      0.0000000000E+00      oname:hds_otype:lst_usecol:trgw-0-13-10 
oname:hds_otype:lst_usecol:trgw-0-13-10_time:4291.5  5.5733690093E+01      0.0000000000E+00      oname:hds_otype:lst_usecol:trgw-0-13-10 
oname:hds_otype:lst_usecol:trgw-0-13-10_time:4322.5  5.5522716943E+01      0.0000000000E+00      oname:hds_otype:lst_usecol:trgw-0-13-10 
oname:hds_otype:lst_usecol:trgw-0-13-10_time:4352.5  5.5320732341E+01      0.0000000000E+00      oname:hds_otype:lst_usecol:trgw-0-13-10 
oname:hds_otype:lst_usecol:trgw-0-13-10_time:4383.5  5.5320204028E+01      0.0000000000E+00      oname:hds_otype:lst_usecol:trgw-0-13-10 
oname:hds_otype:lst_usecol:trgw-0-15-16_time:3652.5  5.6392793412E+01      0.0000000000E+00      oname:hds_otype:lst_usecol:trgw-0-15-16 
oname:hds_otype:lst_usecol:trgw-0-15-16_time:3683.5  5.6357524623E+01      0.0000000000E+00      oname:hds_otype:lst_usecol:trgw-0-15-16 
oname:hds_otype:lst_usecol:trgw-0-15-16_time:3712.5  5.6267212701E+01      0.0000000000E+00      oname:hds_otype:lst_usecol:trgw-0-15-16 
oname:hds_otype:lst_usecol:trgw-0-15-16_time:3743.5  5.6286453436E+01      0.0000000000E+00      oname:hds_otype:lst_usecol:trgw-0-15-16 
oname:hds_otype:lst_usecol:trgw-0-15-16_time:3773.5  5.6357505331E+01      0.0000000000E+00      oname:hds_otype:lst_usecol:trgw-0-15-16 
oname:hds_otype:lst_usecol:trgw-0-15-16_time:3804.5  5.6462466094E+01      0.0000000000E+00      oname:hds_otype:lst_usecol:trgw-0-15-16 
oname:hds_otype:lst_usecol:trgw-0-15-16_time:3834.5  5.6246278848E+01      0.0000000000E+00      oname:hds_otype:lst_usecol:trgw-0-15-16 
oname:hds_otype:lst_usecol:trgw-0-15-16_time:3865.5  5.6176641613E+01      0.0000000000E+00      oname:hds_otype:lst_usecol:trgw-0-15-16 
oname:hds_otype:lst_usecol:trgw-0-15-16_time:3896.5  5.6065483471E+01      0.0000000000E+00      oname:hds_otype:lst_usecol:trgw-0-15-16 
oname:hds_otype:lst_usecol:trgw-0-15-16_time:3926.5  5.5793904917E+01      0.0000000000E+00      oname:hds_otype:lst_usecol:trgw-0-15-16 
oname:hds_otype:lst_usecol:trgw-0-15-16_time:3957.5  5.5633030882E+01      0.0000000000E+00      oname:hds_otype:lst_usecol:trgw-0-15-16 
oname:hds_otype:lst_usecol:trgw-0-15-16_time:3987.5  5.5479571243E+01      0.0000000000E+00      oname:hds_otype:lst_usecol:trgw-0-15-16 
oname:hds_otype:lst_usecol:trgw-0-15-16_time:4018.5  5.5357077023E+01      0.0000000000E+00      oname:hds_otype:lst_usecol:trgw-0-15-16 
oname:hds_otype:lst_usecol:trgw-0-15-16_time:4049.5  5.5354302262E+01      0.0000000000E+00      oname:hds_otype:lst_usecol:trgw-0-15-16 
oname:hds_otype:lst_usecol:trgw-0-15-16_time:4077.5  5.5425173456E+01      0.0000000000E+00      oname:hds_otype:lst_usecol:trgw-0-15-16 
oname:hds_otype:lst_usecol:trgw-0-15-16_time:4108.5  5.5554696167E+01      0.0000000000E+00      oname:hds_otype:lst_usecol:trgw-0-15-16 
oname:hds_otype:lst_usecol:trgw-0-15-16_time:4138.5  5.5575493988E+01      0.0000000000E+00      oname:hds_otype:lst_usecol:trgw-0-15-16 
oname:hds_otype:lst_usecol:trgw-0-15-16_time:4169.5  5.5763801245E+01      0.0000000000E+00      oname:hds_otype:lst_usecol:trgw-0-15-16 
oname:hds_otype:lst_usecol:trgw-0-15-16_time:4199.5  5.5699043960E+01      0.0000000000E+00      oname:hds_otype:lst_usecol:trgw-0-15-16 
oname:hds_otype:lst_usecol:trgw-0-15-16_time:4230.5  5.5672985364E+01      0.0000000000E+00      oname:hds_otype:lst_usecol:trgw-0-15-16 
oname:hds_otype:lst_usecol:trgw-0-15-16_time:4261.5  5.5464974174E+01      0.0000000000E+00      oname:hds_otype:lst_usecol:trgw-0-15-16 
oname:hds_otype:lst_usecol:trgw-0-15-16_time:4291.5  5.5184692445E+01      0.0000000000E+00      oname:hds_otype:lst_usecol:trgw-0-15-16 
oname:hds_otype:lst_usecol:trgw-0-15-16_time:4322.5  5.4990299660E+01      0.0000000000E+00      oname:hds_otype:lst_usecol:trgw-0-15-16 
oname:hds_otype:lst_usecol:trgw-0-15-16_time:4352.5  5.4788768843E+01      0.0000000000E+00      oname:hds_otype:lst_usecol:trgw-0-15-16 
oname:hds_otype:lst_usecol:trgw-0-15-16_time:4383.5  5.4731002979E+01      0.0000000000E+00      oname:hds_otype:lst_usecol:trgw-0-15-16 
 oname:hds_otype:lst_usecol:trgw-0-2-15_time:3652.5  5.9483267447E+01      0.0000000000E+00       oname:hds_otype:lst_usecol:trgw-0-2-15 
 oname:hds_otype:lst_usecol:trgw-0-2-15_time:3683.5  5.9456346750E+01      0.0000000000E+00       oname:hds_otype:lst_usecol:trgw-0-2-15 
 oname:hds_otype:lst_usecol:trgw-0-2-15_time:3712.5  5.9610157053E+01      0.0000000000E+00       oname:hds_otype:lst_usecol:trgw-0-2-15 
 oname:hds_otype:lst_usecol:trgw-0-2-15_time:3743.5  5.9662572769E+01      0.0000000000E+00       oname:hds_otype:lst_usecol:trgw-0-2-15 
 oname:hds_otype:lst_usecol:trgw-0-2-15_time:3773.5  5.9667583740E+01      0.0000000000E+00       oname:hds_otype:lst_usecol:trgw-0-2-15 
 oname:hds_otype:lst_usecol:trgw-0-2-15_time:3804.5  5.9656968485E+01      0.0000000000E+00       oname:hds_otype:lst_usecol:trgw-0-2-15 
 oname:hds_otype:lst_usecol:trgw-0-2-15_time:3834.5  5.9715441012E+01      0.0000000000E+00       oname:hds_otype:lst_usecol:trgw-0-2-15 
 oname:hds_otype:lst_usecol:trgw-0-2-15_time:3865.5  5.9633332593E+01      0.0000000000E+00       oname:hds_otype:lst_usecol:trgw-0-2-15 
 oname:hds_otype:lst_usecol:trgw-0-2-15_time:3896.5  5.9332210716E+01      0.0000000000E+00       oname:hds_otype:lst_usecol:trgw-0-2-15 
 oname:hds_otype:lst_usecol:trgw-0-2-15_time:3926.5  5.9108131819E+01      0.0000000000E+00       oname:hds_otype:lst_usecol:trgw-0-2-15 
 oname:hds_otype:lst_usecol:trgw-0-2-15_time:3957.5  5.8906583620E+01      0.0000000000E+00       oname:hds_otype:lst_usecol:trgw-0-2-15 
 oname:hds_otype:lst_usecol:trgw-0-2-15_time:3987.5  5.8840859243E+01      0.0000000000E+00       oname:hds_otype:lst_usecol:trgw-0-2-15 
 oname:hds_otype:lst_usecol:trgw-0-2-15_time:4018.5  5.8817556508E+01      0.0000000000E+00       oname:hds_otype:lst_usecol:trgw-0-2-15 
 oname:hds_otype:lst_usecol:trgw-0-2-15_time:4049.5  5.8826878693E+01      0.0000000000E+00       oname:hds_otype:lst_usecol:trgw-0-2-15 
 oname:hds_otype:lst_usecol:trgw-0-2-15_time:4077.5  5.8698696239E+01      0.0000000000E+00       oname:hds_otype:lst_usecol:trgw-0-2-15 
 oname:hds_otype:lst_usecol:trgw-0-2-15_time:4108.5  5.8942332223E+01      0.0000000000E+00       oname:hds_otype:lst_usecol:trgw-0-2-15 
 oname:hds_otype:lst_usecol:trgw-0-2-15_time:4138.5  5.9064106714E+01      0.0000000000E+00       oname:hds_otype:lst_usecol:trgw-0-2-15 
 oname:hds_otype:lst_usecol:trgw-0-2-15_time:4169.5  5.9026812260E+01      0.0000000000E+00       oname:hds_otype:lst_usecol:trgw-0-2-15 
 oname:hds_otype:lst_usecol:trgw-0-2-15_time:4199.5  5.9120213659E+01      0.0000000000E+00       oname:hds_otype:lst_usecol:trgw-0-2-15 
 oname:hds_otype:lst_usecol:trgw-0-2-15_time:4230.5  5.8970022810E+01      0.0000000000E+00       oname:hds_otype:lst_usecol:trgw-0-2-15 
 oname:hds_otype:lst_usecol:trgw-0-2-15_time:4261.5  5.8708527376E+01      0.0000000000E+00       oname:hds_otype:lst_usecol:trgw-0-2-15 
 oname:hds_otype:lst_usecol:trgw-0-2-15_time:4291.5  5.8518882220E+01      0.0000000000E+00       oname:hds_otype:lst_usecol:trgw-0-2-15 
 oname:hds_otype:lst_usecol:trgw-0-2-15_time:4322.5  5.8461226527E+01      0.0000000000E+00       oname:hds_otype:lst_usecol:trgw-0-2-15 
 oname:hds_otype:lst_usecol:trgw-0-2-15_time:4352.5  5.8296011143E+01      0.0000000000E+00       oname:hds_otype:lst_usecol:trgw-0-2-15 
 oname:hds_otype:lst_usecol:trgw-0-2-15_time:4383.5  5.8197605063E+01      0.0000000000E+00       oname:hds_otype:lst_usecol:trgw-0-2-15 
  oname:hds_otype:lst_usecol:trgw-0-2-9_time:3652.5  5.9569490742E+01      0.0000000000E+00        oname:hds_otype:lst_usecol:trgw-0-2-9 
  oname:hds_otype:lst_usecol:trgw-0-2-9_time:3683.5  5.9595019573E+01      0.0000000000E+00        oname:hds_otype:lst_usecol:trgw-0-2-9 
  oname:hds_otype:lst_usecol:trgw-0-2-9_time:3712.5  5.9653629946E+01      0.0000000000E+00        oname:hds_otype:lst_usecol:trgw-0-2-9 
  oname:hds_otype:lst_usecol:trgw-0-2-9_time:3743.5  5.9776069899E+01      0.0000000000E+00        oname:hds_otype:lst_usecol:trgw-0-2-9 
  oname:hds_otype:lst_usecol:trgw-0-2-9_time:3773.5  5.9864785786E+01      0.0000000000E+00        oname:hds_otype:lst_usecol:trgw-0-2-9 
  oname:hds_otype:lst_usecol:trgw-0-2-9_time:3804.5  5.9903651801E+01      0.0000000000E+00        oname:hds_otype:lst_usecol:trgw-0-2-9 
  oname:hds_otype:lst_usecol:trgw-0-2-9_time:3834.5  5.9869778811E+01      0.0000000000E+00        oname:hds_otype:lst_usecol:trgw-0-2-9 
  oname:hds_otype:lst_usecol:trgw-0-2-9_time:3865.5  5.9822186659E+01      0.0000000000E+00        oname:hds_otype:lst_usecol:trgw-0-2-9 
  oname:hds_otype:lst_usecol:trgw-0-2-9_time:3896.5  5.9597464186E+01      0.0000000000E+00        oname:hds_otype:lst_usecol:trgw-0-2-9 
  oname:hds_otype:lst_usecol:trgw-0-2-9_time:3926.5  5.9350749338E+01      0.0000000000E+00        oname:hds_otype:lst_usecol:trgw-0-2-9 
  oname:hds_otype:lst_usecol:trgw-0-2-9_time:3957.5  5.9081529378E+01      0.0000000000E+00        oname:hds_otype:lst_usecol:trgw-0-2-9 
  oname:hds_otype:lst_usecol:trgw-0-2-9_time:3987.5  5.8965340505E+01      0.0000000000E+00        oname:hds_otype:lst_usecol:trgw-0-2-9 
  oname:hds_otype:lst_usecol:trgw-0-2-9_time:4018.5  5.8750149526E+01      0.0000000000E+00        oname:hds_otype:lst_usecol:trgw-0-2-9 
  oname:hds_otype:lst_usecol:trgw-0-2-9_time:4049.5  5.8807768407E+01      0.0000000000E+00        oname:hds_otype:lst_usecol:trgw-0-2-9 
  oname:hds_otype:lst_usecol:trgw-0-2-9_time:4077.5  5.8889050315E+01      0.0000000000E+00        oname:hds_otype:lst_usecol:trgw-0-2-9 
  oname:hds_otype:lst_usecol:trgw-0-2-9_time:4108.5  5.9008460089E+01      0.0000000000E+00        oname:hds_otype:lst_usecol:trgw-0-2-9 
  oname:hds_otype:lst_usecol:trgw-0-2-9_time:4138.5  5.9157272232E+01      0.0000000000E+00        oname:hds_otype:lst_usecol:trgw-0-2-9 
  oname:hds_otype:lst_usecol:trgw-0-2-9_time:4169.5  5.9230431878E+01      0.0000000000E+00        oname:hds_otype:lst_usecol:trgw-0-2-9 
  oname:hds_otype:lst_usecol:trgw-0-2-9_time:4199.5  5.9248273139E+01      0.0000000000E+00        oname:hds_otype:lst_usecol:trgw-0-2-9 
  oname:hds_otype:lst_usecol:trgw-0-2-9_time:4230.5  5.9057847812E+01      0.0000000000E+00        oname:hds_otype:lst_usecol:trgw-0-2-9 
  oname:hds_otype:lst_usecol:trgw-0-2-9_time:4261.5  5.9110414244E+01      0.0000000000E+00        oname:hds_otype:lst_usecol:trgw-0-2-9 
  oname:hds_otype:lst_usecol:trgw-0-2-9_time:4291.5  5.8795920399E+01      0.0000000000E+00        oname:hds_otype:lst_usecol:trgw-0-2-9 
  oname:hds_otype:lst_usecol:trgw-0-2-9_time:4322.5  5.8540124568E+01      0.0000000000E+00        oname:hds_otype:lst_usecol:trgw-0-2-9 
  oname:hds_otype:lst_usecol:trgw-0-2-9_time:4352.5  5.8409037079E+01      0.0000000000E+00        oname:hds_otype:lst_usecol:trgw-0-2-9 
  oname:hds_otype:lst_usecol:trgw-0-2-9_time:4383.5  5.8306445177E+01      0.0000000000E+00        oname:hds_otype:lst_usecol:trgw-0-2-9 
oname:hds_otype:lst_usecol:trgw-0-21-10_time:3652.5  5.4934380874E+01      0.0000000000E+00      oname:hds_otype:lst_usecol:trgw-0-21-10 
oname:hds_otype:lst_usecol:trgw-0-21-10_time:3683.5  5.4827628639E+01      0.0000000000E+00      oname:hds_otype:lst_usecol:trgw-0-21-10 
oname:hds_otype:lst_usecol:trgw-0-21-10_time:3712.5  5.4740893998E+01      0.0000000000E+00      oname:hds_otype:lst_usecol:trgw-0-21-10 
oname:hds_otype:lst_usecol:trgw-0-21-10_time:3743.5  5.4754499422E+01      0.0000000000E+00      oname:hds_otype:lst_usecol:trgw-0-21-10 
oname:hds_otype:lst_usecol:trgw-0-21-10_time:3773.5  5.4741761271E+01      0.0000000000E+00      oname:hds_otype:lst_usecol:trgw-0-21-10 
oname:hds_otype:lst_usecol:trgw-0-21-10_time:3804.5  5.4766365174E+01      0.0000000000E+00      oname:hds_otype:lst_usecol:trgw-0-21-10 
oname:hds_otype:lst_usecol:trgw-0-21-10_time:3834.5  5.4655163500E+01      0.0000000000E+00      oname:hds_otype:lst_usecol:trgw-0-21-10 
oname:hds_otype:lst_usecol:trgw-0-21-10_time:3865.5  5.4524059266E+01      0.0000000000E+00      oname:hds_otype:lst_usecol:trgw-0-21-10 
oname:hds_otype:lst_usecol:trgw-0-21-10_time:3896.5  5.4377960084E+01      0.0000000000E+00      oname:hds_otype:lst_usecol:trgw-0-21-10 
oname:hds_otype:lst_usecol:trgw-0-21-10_time:3926.5  5.4152955211E+01      0.0000000000E+00      oname:hds_otype:lst_usecol:trgw-0-21-10 
oname:hds_otype:lst_usecol:trgw-0-21-10_time:3957.5  5.3995907432E+01      0.0000000000E+00      oname:hds_otype:lst_usecol:trgw-0-21-10 
oname:hds_otype:lst_usecol:trgw-0-21-10_time:3987.5  5.3787695194E+01      0.0000000000E+00      oname:hds_otype:lst_usecol:trgw-0-21-10 
oname:hds_otype:lst_usecol:trgw-0-21-10_time:4018.5  5.3553819162E+01      0.0000000000E+00      oname:hds_otype:lst_usecol:trgw-0-21-10 
oname:hds_otype:lst_usecol:trgw-0-21-10_time:4049.5  5.3482432035E+01      0.0000000000E+00      oname:hds_otype:lst_usecol:trgw-0-21-10 
oname:hds_otype:lst_usecol:trgw-0-21-10_time:4077.5  5.3542227298E+01      0.0000000000E+00      oname:hds_otype:lst_usecol:trgw-0-21-10 
oname:hds_otype:lst_usecol:trgw-0-21-10_time:4108.5  5.3621083147E+01      0.0000000000E+00      oname:hds_otype:lst_usecol:trgw-0-21-10 
oname:hds_otype:lst_usecol:trgw-0-21-10_time:4138.5  5.3676692576E+01      0.0000000000E+00      oname:hds_otype:lst_usecol:trgw-0-21-10 
oname:hds_otype:lst_usecol:trgw-0-21-10_time:4169.5  5.3868161717E+01      0.0000000000E+00      oname:hds_otype:lst_usecol:trgw-0-21-10 
oname:hds_otype:lst_usecol:trgw-0-21-10_time:4199.5  5.3808570824E+01      0.0000000000E+00      oname:hds_otype:lst_usecol:trgw-0-21-10 
oname:hds_otype:lst_usecol:trgw-0-21-10_time:4230.5  5.3787957000E+01      0.0000000000E+00      oname:hds_otype:lst_usecol:trgw-0-21-10 
oname:hds_otype:lst_usecol:trgw-0-21-10_time:4261.5  5.3419000994E+01      0.0000000000E+00      oname:hds_otype:lst_usecol:trgw-0-21-10 
oname:hds_otype:lst_usecol:trgw-0-21-10_time:4291.5  5.3348764564E+01      0.0000000000E+00      oname:hds_otype:lst_usecol:trgw-0-21-10 
oname:hds_otype:lst_usecol:trgw-0-21-10_time:4322.5  5.3063342457E+01      0.0000000000E+00      oname:hds_otype:lst_usecol:trgw-0-21-10 
oname:hds_otype:lst_usecol:trgw-0-21-10_time:4352.5  5.2890216716E+01      0.0000000000E+00      oname:hds_otype:lst_usecol:trgw-0-21-10 
oname:hds_otype:lst_usecol:trgw-0-21-10_time:4383.5  5.2760734650E+01      0.0000000000E+00      oname:hds_otype:lst_usecol:trgw-0-21-10 
oname:hds_otype:lst_usecol:trgw-0-22-15_time:3652.5  5.4347218320E+01      0.0000000000E+00      oname:hds_otype:lst_usecol:trgw-0-22-15 
oname:hds_otype:lst_usecol:trgw-0-22-15_time:3683.5  5.4302031531E+01      0.0000000000E+00      oname:hds_otype:lst_usecol:trgw-0-22-15 
oname:hds_otype:lst_usecol:trgw-0-22-15_time:3712.5  5.4193231742E+01      0.0000000000E+00      oname:hds_otype:lst_usecol:trgw-0-22-15 
oname:hds_otype:lst_usecol:trgw-0-22-15_time:3743.5  5.4142874767E+01      0.0000000000E+00      oname:hds_otype:lst_usecol:trgw-0-22-15 
oname:hds_otype:lst_usecol:trgw-0-22-15_time:3773.5  5.4317813704E+01      0.0000000000E+00      oname:hds_otype:lst_usecol:trgw-0-22-15 
oname:hds_otype:lst_usecol:trgw-0-22-15_time:3804.5  5.4357211708E+01      0.0000000000E+00      oname:hds_otype:lst_usecol:trgw-0-22-15 
oname:hds_otype:lst_usecol:trgw-0-22-15_time:3834.5  5.4206614933E+01      0.0000000000E+00      oname:hds_otype:lst_usecol:trgw-0-22-15 
oname:hds_otype:lst_usecol:trgw-0-22-15_time:3865.5  5.4149086746E+01      0.0000000000E+00      oname:hds_otype:lst_usecol:trgw-0-22-15 
oname:hds_otype:lst_usecol:trgw-0-22-15_time:3896.5  5.3873078476E+01      0.0000000000E+00      oname:hds_otype:lst_usecol:trgw-0-22-15 
oname:hds_otype:lst_usecol:trgw-0-22-15_time:3926.5  5.3721221592E+01      0.0000000000E+00      oname:hds_otype:lst_usecol:trgw-0-22-15 
oname:hds_otype:lst_usecol:trgw-0-22-15_time:3957.5  5.3520162756E+01      0.0000000000E+00      oname:hds_otype:lst_usecol:trgw-0-22-15 
oname:hds_otype:lst_usecol:trgw-0-22-15_time:3987.5  5.3354690283E+01      0.0000000000E+00      oname:hds_otype:lst_usecol:trgw-0-22-15 
oname:hds_otype:lst_usecol:trgw-0-22-15_time:4018.5  5.3221492884E+01      0.0000000000E+00      oname:hds_otype:lst_usecol:trgw-0-22-15 
oname:hds_otype:lst_usecol:trgw-0-22-15_time:4049.5  5.3293139903E+01      0.0000000000E+00      oname:hds_otype:lst_usecol:trgw-0-22-15 
oname:hds_otype:lst_usecol:trgw-0-22-15_time:4077.5  5.3397392795E+01      0.0000000000E+00      oname:hds_otype:lst_usecol:trgw-0-22-15 
oname:hds_otype:lst_usecol:trgw-0-22-15_time:4108.5  5.3508450541E+01      0.0000000000E+00      oname:hds_otype:lst_usecol:trgw-0-22-15 
oname:hds_otype:lst_usecol:trgw-0-22-15_time:4138.5  5.3482715900E+01      0.0000000000E+00      oname:hds_otype:lst_usecol:trgw-0-22-15 
oname:hds_otype:lst_usecol:trgw-0-22-15_time:4169.5  5.3527695271E+01      0.0000000000E+00      oname:hds_otype:lst_usecol:trgw-0-22-15 
oname:hds_otype:lst_usecol:trgw-0-22-15_time:4199.5  5.3539085695E+01      0.0000000000E+00      oname:hds_otype:lst_usecol:trgw-0-22-15 
oname:hds_otype:lst_usecol:trgw-0-22-15_time:4230.5  5.3535675284E+01      0.0000000000E+00      oname:hds_otype:lst_usecol:trgw-0-22-15 
oname:hds_otype:lst_usecol:trgw-0-22-15_time:4261.5  5.3267747189E+01      0.0000000000E+00      oname:hds_otype:lst_usecol:trgw-0-22-15 
oname:hds_otype:lst_usecol:trgw-0-22-15_time:4291.5  5.3086285409E+01      0.0000000000E+00      oname:hds_otype:lst_usecol:trgw-0-22-15 
oname:hds_otype:lst_usecol:trgw-0-22-15_time:4322.5  5.2894888389E+01      0.0000000000E+00      oname:hds_otype:lst_usecol:trgw-0-22-15 
oname:hds_otype:lst_usecol:trgw-0-22-15_time:4352.5  5.2732135810E+01      0.0000000000E+00      oname:hds_otype:lst_usecol:trgw-0-22-15 
oname:hds_otype:lst_usecol:trgw-0-22-15_time:4383.5  5.2802094543E+01      0.0000000000E+00      oname:hds_otype:lst_usecol:trgw-0-22-15 
 oname:hds_otype:lst_usecol:trgw-0-24-4_time:3652.5  5.4434756093E+01      0.0000000000E+00       oname:hds_otype:lst_usecol:trgw-0-24-4 
 oname:hds_otype:lst_usecol:trgw-0-24-4_time:3683.5  5.4384905137E+01      0.0000000000E+00       oname:hds_otype:lst_usecol:trgw-0-24-4 
 oname:hds_otype:lst_usecol:trgw-0-24-4_time:3712.5  5.4378829933E+01      0.0000000000E+00       oname:hds_otype:lst_usecol:trgw-0-24-4 
 oname:hds_otype:lst_usecol:trgw-0-24-4_time:3743.5  5.4427139287E+01      0.0000000000E+00       oname:hds_otype:lst_usecol:trgw-0-24-4 
 oname:hds_otype:lst_usecol:trgw-0-24-4_time:3773.5  5.4468309304E+01      0.0000000000E+00       oname:hds_otype:lst_usecol:trgw-0-24-4 
 oname:hds_otype:lst_usecol:trgw-0-24-4_time:3804.5  5.4549038859E+01      0.0000000000E+00       oname:hds_otype:lst_usecol:trgw-0-24-4 
 oname:hds_otype:lst_usecol:trgw-0-24-4_time:3834.5  5.4429577735E+01      0.0000000000E+00       oname:hds_otype:lst_usecol:trgw-0-24-4 
 oname:hds_otype:lst_usecol:trgw-0-24-4_time:3865.5  5.4178867674E+01      0.0000000000E+00       oname:hds_otype:lst_usecol:trgw-0-24-4 
 oname:hds_otype:lst_usecol:trgw-0-24-4_time:3896.5  5.4017763132E+01      0.0000000000E+00       oname:hds_otype:lst_usecol:trgw-0-24-4 
 oname:hds_otype:lst_usecol:trgw-0-24-4_time:3926.5  5.3785590505E+01      0.0000000000E+00       oname:hds_otype:lst_usecol:trgw-0-24-4 
 oname:hds_otype:lst_usecol:trgw-0-24-4_time:3957.5  5.3552172824E+01      0.0000000000E+00       oname:hds_otype:lst_usecol:trgw-0-24-4 
 oname:hds_otype:lst_usecol:trgw-0-24-4_time:3987.5  5.1811104609E+01      0.0000000000E+00       oname:hds_otype:lst_usecol:trgw-0-24-4 
 oname:hds_otype:lst_usecol:trgw-0-24-4_time:4018.5  5.1527466186E+01      0.0000000000E+00       oname:hds_otype:lst_usecol:trgw-0-24-4 
 oname:hds_otype:lst_usecol:trgw-0-24-4_time:4049.5  5.1294326895E+01      0.0000000000E+00       oname:hds_otype:lst_usecol:trgw-0-24-4 
 oname:hds_otype:lst_usecol:trgw-0-24-4_time:4077.5  5.1186935693E+01      0.0000000000E+00       oname:hds_otype:lst_usecol:trgw-0-24-4 
 oname:hds_otype:lst_usecol:trgw-0-24-4_time:4108.5  5.1259084446E+01      0.0000000000E+00       oname:hds_otype:lst_usecol:trgw-0-24-4 
 oname:hds_otype:lst_usecol:trgw-0-24-4_time:4138.5  5.1193897636E+01      0.0000000000E+00       oname:hds_otype:lst_usecol:trgw-0-24-4 
 oname:hds_otype:lst_usecol:trgw-0-24-4_time:4169.5  5.1227488131E+01      0.0000000000E+00       oname:hds_otype:lst_usecol:trgw-0-24-4 
 oname:hds_otype:lst_usecol:trgw-0-24-4_time:4199.5  5.1257833078E+01      0.0000000000E+00       oname:hds_otype:lst_usecol:trgw-0-24-4 
 oname:hds_otype:lst_usecol:trgw-0-24-4_time:4230.5  5.1116417821E+01      0.0000000000E+00       oname:hds_otype:lst_usecol:trgw-0-24-4 
 oname:hds_otype:lst_usecol:trgw-0-24-4_time:4261.5  5.0803260978E+01      0.0000000000E+00       oname:hds_otype:lst_usecol:trgw-0-24-4 
 oname:hds_otype:lst_usecol:trgw-0-24-4_time:4291.5  5.0642615843E+01      0.0000000000E+00       oname:hds_otype:lst_usecol:trgw-0-24-4 
 oname:hds_otype:lst_usecol:trgw-0-24-4_time:4322.5  5.0281978872E+01      0.0000000000E+00       oname:hds_otype:lst_usecol:trgw-0-24-4 
 oname:hds_otype:lst_usecol:trgw-0-24-4_time:4352.5  5.0129592052E+01      0.0000000000E+00       oname:hds_otype:lst_usecol:trgw-0-24-4 
 oname:hds_otype:lst_usecol:trgw-0-24-4_time:4383.5  5.0056839341E+01      0.0000000000E+00       oname:hds_otype:lst_usecol:trgw-0-24-4 
 oname:hds_otype:lst_usecol:trgw-0-26-6_time:3652.5  5.3781319320E+01      0.0000000000E+00       oname:hds_otype:lst_usecol:trgw-0-26-6 
 oname:hds_otype:lst_usecol:trgw-0-26-6_time:3683.5  5.3707730517E+01      0.0000000000E+00       oname:hds_otype:lst_usecol:trgw-0-26-6 
 oname:hds_otype:lst_usecol:trgw-0-26-6_time:3712.5  5.3648261450E+01      0.0000000000E+00       oname:hds_otype:lst_usecol:trgw-0-26-6 
 oname:hds_otype:lst_usecol:trgw-0-26-6_time:3743.5  5.3620290391E+01      0.0000000000E+00       oname:hds_otype:lst_usecol:trgw-0-26-6 
 oname:hds_otype:lst_usecol:trgw-0-26-6_time:3773.5  5.3690541574E+01      0.0000000000E+00       oname:hds_otype:lst_usecol:trgw-0-26-6 
 oname:hds_otype:lst_usecol:trgw-0-26-6_time:3804.5  5.3726361691E+01      0.0000000000E+00       oname:hds_otype:lst_usecol:trgw-0-26-6 
 oname:hds_otype:lst_usecol:trgw-0-26-6_time:3834.5  5.3611891124E+01      0.0000000000E+00       oname:hds_otype:lst_usecol:trgw-0-26-6 
 oname:hds_otype:lst_usecol:trgw-0-26-6_time:3865.5  5.3457443627E+01      0.0000000000E+00       oname:hds_otype:lst_usecol:trgw-0-26-6 
 oname:hds_otype:lst_usecol:trgw-0-26-6_time:3896.5  5.3194410665E+01      0.0000000000E+00       oname:hds_otype:lst_usecol:trgw-0-26-6 
 oname:hds_otype:lst_usecol:trgw-0-26-6_time:3926.5  5.2972216626E+01      0.0000000000E+00       oname:hds_otype:lst_usecol:trgw-0-26-6 
 oname:hds_otype:lst_usecol:trgw-0-26-6_time:3957.5  5.2645718144E+01      0.0000000000E+00       oname:hds_otype:lst_usecol:trgw-0-26-6 
 oname:hds_otype:lst_usecol:trgw-0-26-6_time:3987.5  5.2372501967E+01      0.0000000000E+00       oname:hds_otype:lst_usecol:trgw-0-26-6 
 oname:hds_otype:lst_usecol:trgw-0-26-6_time:4018.5  5.2019835500E+01      0.0000000000E+00       oname:hds_otype:lst_usecol:trgw-0-26-6 
 oname:hds_otype:lst_usecol:trgw-0-26-6_time:4049.5  5.1980134710E+01      0.0000000000E+00       oname:hds_otype:lst_usecol:trgw-0-26-6 
 oname:hds_otype:lst_usecol:trgw-0-26-6_time:4077.5  5.1984963728E+01      0.0000000000E+00       oname:hds_otype:lst_usecol:trgw-0-26-6 
 oname:hds_otype:lst_usecol:trgw-0-26-6_time:4108.5  5.2046027217E+01      0.0000000000E+00       oname:hds_otype:lst_usecol:trgw-0-26-6 
 oname:hds_otype:lst_usecol:trgw-0-26-6_time:4138.5  5.2022446025E+01      0.0000000000E+00       oname:hds_otype:lst_usecol:trgw-0-26-6 
 oname:hds_otype:lst_usecol:trgw-0-26-6_time:4169.5  5.1991612080E+01      0.0000000000E+00       oname:hds_otype:lst_usecol:trgw-0-26-6 
 oname:hds_otype:lst_usecol:trgw-0-26-6_time:4199.5  5.2054011385E+01      0.0000000000E+00       oname:hds_otype:lst_usecol:trgw-0-26-6 
 oname:hds_otype:lst_usecol:trgw-0-26-6_time:4230.5  5.1952162751E+01      0.0000000000E+00       oname:hds_otype:lst_usecol:trgw-0-26-6 
 oname:hds_otype:lst_usecol:trgw-0-26-6_time:4261.5  5.1613827268E+01      0.0000000000E+00       oname:hds_otype:lst_usecol:trgw-0-26-6 
 oname:hds_otype:lst_usecol:trgw-0-26-6_time:4291.5  5.1487394231E+01      0.0000000000E+00       oname:hds_otype:lst_usecol:trgw-0-26-6 
 oname:hds_otype:lst_usecol:trgw-0-26-6_time:4322.5  5.1219636643E+01      0.0000000000E+00       oname:hds_otype:lst_usecol:trgw-0-26-6 
 oname:hds_otype:lst_usecol:trgw-0-26-6_time:4352.5  5.1069532459E+01      0.0000000000E+00       oname:hds_otype:lst_usecol:trgw-0-26-6 
 oname:hds_otype:lst_usecol:trgw-0-26-6_time:4383.5  5.0941024435E+01      0.0000000000E+00       oname:hds_otype:lst_usecol:trgw-0-26-6 