# File generated by Flopy version 3.9.5 on 01/08/2026 at 22:43:09.
BEGIN options
END options

BEGIN dimensions
  MAXBOUND  30
END dimensions

BEGIN period  1
    OPEN/CLOSE  'downsc_freyberg.ghb_stress_period_data_1.txt'
END period  1

