# File generated by Flopy version 3.9.5 on 01/08/2026 at 22:43:08.
BEGIN options
  LENGTH_UNITS  meters
END options

BEGIN dimensions
  NLAY  1
  NROW  40
  NCOL  20
END dimensions

BEGIN griddata
  delr
    OPEN/CLOSE  'downsc_freyberg.dis_delr.txt'  FACTOR  1.0
  delc
    OPEN/CLOSE  'downsc_freyberg.dis_delc.txt'  FACTOR  1.0
  top
    OPEN/CLOSE  'downsc_freyberg.dis_top.txt'  FACTOR  1.0
  botm
    OPEN/CLOSE  'downsc_freyberg.dis_botm.txt'  FACTOR  1.0
  idomain
    OPEN/CLOSE  'downsc_freyberg.dis_idomain.txt'  FACTOR  1
END griddata

