# File generated by Flopy version 3.9.5 on 01/08/2026 at 22:43:08.
BEGIN options
END options

BEGIN griddata
  strt
    OPEN/CLOSE  'downsc_freyberg.ic_strt.txt'  FACTOR  1.0
END griddata

