# File generated by Flopy version 3.9.5 on 01/08/2026 at 22:43:08.
BEGIN options
  TIME_UNITS  days
END options

BEGIN dimensions
  NPER  25
END dimensions

BEGIN perioddata
    3652.50000000  1       1.00000000
      31.00000000  1       1.00000000
      29.00000000  1       1.00000000
      31.00000000  1       1.00000000
      30.00000000  1       1.00000000
      31.00000000  1       1.00000000
      30.00000000  1       1.00000000
      31.00000000  1       1.00000000
      31.00000000  1       1.00000000
      30.00000000  1       1.00000000
      31.00000000  1       1.00000000
      30.00000000  1       1.00000000
      31.00000000  1       1.00000000
      31.00000000  1       1.00000000
      28.00000000  1       1.00000000
      31.00000000  1       1.00000000
      30.00000000  1       1.00000000
      31.00000000  1       1.00000000
      30.00000000  1       1.00000000
      31.00000000  1       1.00000000
      31.00000000  1       1.00000000
      30.00000000  1       1.00000000
      31.00000000  1       1.00000000
      30.00000000  1       1.00000000
      31.00000000  1       1.00000000
END perioddata

