# File generated by Flopy version 3.9.5 on 01/08/2026 at 22:43:08.
BEGIN options
END options

BEGIN griddata
  iconvert
    OPEN/CLOSE  'downsc_freyberg.sto_iconvert.txt'  FACTOR  1
  ss
    OPEN/CLOSE  'downsc_freyberg.sto_ss.txt'  FACTOR  1.0
  sy
    OPEN/CLOSE  'downsc_freyberg.sto_sy.txt'  FACTOR  1.0
END griddata

BEGIN period  1
  STEADY-STATE
END period  1

BEGIN period  2
  TRANSIENT
END period  2

BEGIN period  3
  TRANSIENT
END period  3

BEGIN period  4
  TRANSIENT
END period  4

BEGIN period  5
  TRANSIENT
END period  5

BEGIN period  6
  TRANSIENT
END period  6

BEGIN period  7
  TRANSIENT
END period  7

BEGIN period  8
  TRANSIENT
END period  8

BEGIN period  9
  TRANSIENT
END period  9

BEGIN period  10
  TRANSIENT
END period  10

BEGIN period  11
  TRANSIENT
END period  11

BEGIN period  12
  TRANSIENT
END period  12

BEGIN period  13
  TRANSIENT
END period  13

BEGIN period  14
  TRANSIENT
END period  14

BEGIN period  15
  TRANSIENT
END period  15

BEGIN period  16
  TRANSIENT
END period  16

BEGIN period  17
  TRANSIENT
END period  17

BEGIN period  18
  TRANSIENT
END period  18

BEGIN period  19
  TRANSIENT
END period  19

BEGIN period  20
  TRANSIENT
END period  20

BEGIN period  21
  TRANSIENT
END period  21

BEGIN period  22
  TRANSIENT
END period  22

BEGIN period  23
  TRANSIENT
END period  23

BEGIN period  24
  TRANSIENT
END period  24

BEGIN period  25
  TRANSIENT
END period  25

