# File generated by Flopy version 3.9.5 on 01/08/2026 at 22:43:08.
BEGIN options
  PRINT_OPTION  summary
  COMPLEXITY  complex
END options

