# File generated by Flopy version 3.9.5 on 01/08/2026 at 22:43:08.
BEGIN options
  SAVE_FLOWS
  NEWTON
END options

BEGIN packages
  DIS6  downsc_freyberg.dis  dis
  IC6  downsc_freyberg.ic  ic
  NPF6  downsc_freyberg.npf  npf
  STO6  downsc_freyberg.sto  sto
  RCH6  downsc_freyberg.rcha  rcha_0
  WEL6  downsc_freyberg.wel  wel_0
  GHB6  downsc_freyberg.ghb  ghb_0
  SFR6  downsc_freyberg.sfr  sfr_0
  OC6  downsc_freyberg.oc  oc
  OBS6  downsc_freyberg.obs  obs_0
END packages

