# File generated by Flopy version 3.9.5 on 01/08/2026 at 22:43:08.
BEGIN options
  CONTINUE
END options

BEGIN timing
  TDIS6  downsc_freyberg.tdis
END timing

BEGIN models
  gwf6  downsc_freyberg.nam  downsc_freyberg
END models

BEGIN exchanges
END exchanges

BEGIN solutiongroup  1
  ims6  downsc_freyberg.ims  downsc_freyberg
END solutiongroup  1

